
**** 11/26/21 10:57:24 ******* PSpice 17.4.0 (Nov 2018) ******* ID# 0 ********

 ** Profile: "SCHEMATIC1-Transient"  [ D:\GitHub\OrCadPSpiceProjects\014_DenCh7Ex1_StepResolution\014_DenCh7Ex1_StepResolution-PSpice


 ****     CIRCUIT DESCRIPTION


******************************************************************************




** Creating circuit file "Transient.cir" 
** WARNING: THIS AUTOMATICALLY GENERATED FILE MAY BE OVERWRITTEN BY SUBSEQUENT SIMULATIONS

*Libraries: 
* Profile Libraries :
* Local Libraries :
* From [PSPICE NETLIST] section of C:\Users\Maxim\AppData\Roaming\SPB_Data\cdssetup\OrCAD_PSpice\17.4.0\PSpice.ini file:
.lib "nom.lib" 

*Analysis directives: 
.TRAN  0 10ms 0 {schedule(0,0, 2m,0.05m, 4m,0.01m, 6m,0.005m, 8m,0.001m)} 
.OPTIONS ADVCONV
.PROBE64 V(alias(*)) I(alias(*)) W(alias(*)) D(alias(*)) NOISE(alias(*)) 
.INC "..\SCHEMATIC1.net" 



**** INCLUDING SCHEMATIC1.net ****
* source 014_DENCH7EX1_STEPRESOLUTION
R_R1         0 N00078  1k TC=0,0 
V_V2         N00078 0  AC 0
+SIN 0 1V 1kHz 0 0 0

**** RESUMING Transient.cir ****
.END

**** 11/26/21 10:57:24 ******* PSpice 17.4.0 (Nov 2018) ******* ID# 0 ********

 ** Profile: "SCHEMATIC1-Transient"  [ D:\GitHub\OrCadPSpiceProjects\014_DenCh7Ex1_StepResolution\014_DenCh7Ex1_StepResolution-PSpice


 ****     INITIAL TRANSIENT SOLUTION       TEMPERATURE =   27.000 DEG C


******************************************************************************



 NODE   VOLTAGE     NODE   VOLTAGE     NODE   VOLTAGE     NODE   VOLTAGE


(N00078)    0.0000 




    VOLTAGE SOURCE CURRENTS
    NAME         CURRENT

    V_V2         0.000E+00

    TOTAL POWER DISSIPATION   0.00E+00  WATTS



          JOB CONCLUDED

**** 11/26/21 10:57:24 ******* PSpice 17.4.0 (Nov 2018) ******* ID# 0 ********

 ** Profile: "SCHEMATIC1-Transient"  [ D:\GitHub\OrCadPSpiceProjects\014_DenCh7Ex1_StepResolution\014_DenCh7Ex1_StepResolution-PSpice


 ****     JOB STATISTICS SUMMARY


******************************************************************************



  License check-out time            =        1.25
  Total job time (using Solver 1)   =         .02
