
**** 11/25/21 19:39:17 ******* PSpice 17.4.0 (Nov 2018) ******* ID# 0 ********

 ** Profile: "SCHEMATIC1-transient1"  [ D:\GitHub\OrCadPSpiceProjects\007_Stimulus\007_stimulus-pspicefiles\schematic1\transient1.sim


 ****     CIRCUIT DESCRIPTION


******************************************************************************




** Creating circuit file "transient1.cir" 
** WARNING: THIS AUTOMATICALLY GENERATED FILE MAY BE OVERWRITTEN BY SUBSEQUENT SIMULATIONS

*Libraries: 
* Profile Libraries :
.INC "D:\GitHub\OrCadPSpiceProjects\007_Stimulus\007_stimulus-pspicefiles\schematic1\transient1\transient1_profile.inc" 
* Local Libraries :

**** INCLUDING transient1_profile.inc ****
.STMLIB "./transient1.stl" 

**** RESUMING transient1.cir ****
.STMLIB "../../../007_stimulus-pspicefiles/007_stimulus.stl" 
* From [PSPICE NETLIST] section of C:\Users\Maxim\AppData\Roaming\SPB_Data\cdssetup\OrCAD_PSpice\17.4.0\PSpice.ini file:
.lib "nom.lib" 

*Analysis directives: 
.TRAN  0 500us 0 
.OPTIONS ADVCONV
.PROBE64 V(alias(*)) I(alias(*)) W(alias(*)) D(alias(*)) NOISE(alias(*)) 
.INC "..\SCHEMATIC1.net" 



**** INCLUDING SCHEMATIC1.net ****
* source 007_STIMULUS
V_V1         N00232 0   STIMULUS=StimulU1
R_R1         N00232 0  1k TC=0,0 
V_V2         N00720 0  
+PULSE 0V 10V 1us 1us 1us 10us 30us
R_R2         N00720 0  1k TC=0,0 
R_R3         N01011 0  1k TC=0,0 
I_I1         N01011 0   STIMULUS=Isimul
V_V3         N01823 0   STIMULUS=StimulSinus
R_R4         N01823 0  1k TC=0,0 
V_V4         N02093 0   STIMULUS=FMSinus
R_R5         N02093 0  1k TC=0,0 

**** RESUMING transient1.cir ****
.END
* D:\GitHub\OrCadPSpiceProjects\007_Stimulus\007_Stimulus-PSpiceFiles\SCHEMATIC1\transient1\transient1.stl written on Sat May  1 16:45:58 2021
* by Stimulus Editor -- Serial Number: 825242159 -- Version 17.4.0
;!Stimulus Get
;! Ipulse Analog Isimul Analog StimulSinus Analog FMSinus Analog
;!Ok
;!Plot Axis_Settings
;!Xrange 0s 650us
;!Yrange -1 3
;!AutoUniverse
;!XminRes 1ns
;!YminRes 1n
;!Ok
.STIMULUS Ipulse PULSE( 0 100uA 10u 10u 20u 100u 200u )
.STIMULUS Isimul PULSE( 0 100uA 10u 10u 20u 100u 200u )
.STIMULUS StimulSinus SIN( 0 1 10KHz 100u 0 0 )
.STIMULUS FMSinus SFFM( 2 1 100KHz 7 10KHz )

**** 11/25/21 19:39:17 ******* PSpice 17.4.0 (Nov 2018) ******* ID# 0 ********

 ** Profile: "SCHEMATIC1-transient1"  [ D:\GitHub\OrCadPSpiceProjects\007_Stimulus\007_stimulus-pspicefiles\schematic1\transient1.sim


 ****     INITIAL TRANSIENT SOLUTION       TEMPERATURE =   27.000 DEG C


******************************************************************************



 NODE   VOLTAGE     NODE   VOLTAGE     NODE   VOLTAGE     NODE   VOLTAGE


(N00232)    0.0000 (N00720)    0.0000 (N01011)    0.0000 (N01823)    0.0000     

(N02093)    2.0000 




    VOLTAGE SOURCE CURRENTS
    NAME         CURRENT

    V_V1         0.000E+00
    V_V2         0.000E+00
    V_V3         0.000E+00
    V_V4        -2.000E-03

    TOTAL POWER DISSIPATION   4.00E-03  WATTS



          JOB CONCLUDED

**** 11/25/21 19:39:17 ******* PSpice 17.4.0 (Nov 2018) ******* ID# 0 ********

 ** Profile: "SCHEMATIC1-transient1"  [ D:\GitHub\OrCadPSpiceProjects\007_Stimulus\007_stimulus-pspicefiles\schematic1\transient1.sim


 ****     JOB STATISTICS SUMMARY


******************************************************************************



  License check-out time            =        1.80
  Total job time (using Solver 1)   =         .02
